@Y@1000013.cif@Y@# generated using pymatgen
data_ZnCrCoCu
_symmetry_space_group_name_H-M   'P 1'
_cell_length_a   4.04600985
_cell_length_b   4.04600985
_cell_length_c   4.04600985
_cell_angle_alpha   60.00000000
_cell_angle_beta   60.00000000
_cell_angle_gamma   60.00000000
_symmetry_Int_Tables_number   1
_chemical_formula_structural   ZnCrCoCu
_chemical_formula_sum   'Zn1 Cr1 Co1 Cu1'
_cell_volume   46.83449142
_cell_formula_units_Z   1
loop_
 _symmetry_equiv_pos_site_id
 _symmetry_equiv_pos_as_xyz
  1  'x, y, z'
loop_
 _atom_site_type_symbol
 _atom_site_label
 _atom_site_symmetry_multiplicity
 _atom_site_fract_x
 _atom_site_fract_y
 _atom_site_fract_z
 _atom_site_occupancy
  Co  Co0  1  0.00000000  0.00000000  0.00000000  1
  Cr  Cr1  1  0.25000000  0.25000000  0.25000000  1
  Cu  Cu2  1  0.75000000  0.75000000  0.75000000  1
  Zn  Zn3  1  0.50000000  0.50000000  0.50000000  1

